seed_701
     RDKit          3D

 66 68  0  0  0  0  0  0  0  0999 V2000
   11.2080    7.0840   27.4210 N   0  0  0  0  0  0  0  0  0  1  0  0
   10.0170    7.0650   26.8190 C   0  0  0  0  0  0  0  0  0  2  0  0
    9.1060    6.1850   27.2360 N   0  0  0  0  0  0  0  0  0  3  0  0
    9.7270    7.8780   25.8050 N   0  0  0  0  0  0  0  0  0  4  0  0
   10.5760    8.8710   25.1440 C   0  0  0  0  0  0  0  0  0  5  0  0
   10.3380    8.9240   23.6350 C   0  0  0  0  0  0  0  0  0  6  0  0
    8.9360    9.4320   23.2410 C   0  0  0  0  0  0  0  0  0  7  0  0
    8.2710    8.5930   22.1230 C   0  0  1  0  0  0  0  0  0  8  0  0
    6.8370    8.3950   22.3670 N   0  0  0  0  0  0  0  0  0  9  0  0
    6.3640    7.4300   23.2320 C   0  0  0  0  0  0  0  0  0 10  0  0
    7.0780    6.9190   24.0960 O   0  0  0  0  0  0  0  0  0 11  0  0
    4.9000    7.0330   22.9960 C   0  0  0  0  0  0  0  0  0 12  0  0
    4.7680    5.8900   22.0930 N   0  0  0  0  0  0  0  0  0 13  0  0
    5.8070    5.6750   21.0930 C   0  0  0  0  0  0  0  0  0 14  0  0
    5.2600    4.8770   19.9080 C   0  0  0  0  0  0  0  0  0 15  0  0
    4.6890    3.5630   20.3290 N   0  0  0  0  0  0  0  0  0 16  0  0
    5.4860    2.1690   19.7680 S   0  0  1  0  0  6  0  0  0 17  0  0
    6.3200    1.6920   20.8510 O   0  0  0  0  0  0  0  0  0 18  0  0
    4.4530    1.3090   19.2210 O   0  0  0  0  0  0  0  0  0 19  0  0
    6.4800    2.7210   18.3680 C   0  0  0  0  0  0  0  0  0 20  0  0
    7.5150    1.7170   17.9460 C   0  0  0  0  0  0  0  0  0 21  0  0
    7.2340    0.7940   16.9250 C   0  0  0  0  0  0  0  0  0 22  0  0
    8.1860   -0.1490   16.5390 C   0  0  0  0  0  0  0  0  0 23  0  0
    9.4260   -0.1880   17.1720 C   0  0  0  0  0  0  0  0  0 24  0  0
    9.7130    0.7130   18.1960 C   0  0  0  0  0  0  0  0  0 25  0  0
    8.7620    1.6560   18.5860 C   0  0  0  0  0  0  0  0  0 26  0  0
    4.3150    3.4780   21.7700 C   0  0  0  0  0  0  0  0  0 27  0  0
    4.0380    4.7780   22.5120 C   0  0  0  0  0  0  0  0  0 28  0  0
    3.2440    4.8240   23.4580 O   0  0  0  0  0  0  0  0  0 29  0  0
    8.6830    9.1740   20.7350 C   0  0  0  0  0  0  0  0  0 30  0  0
    9.8890    9.2840   20.4870 O   0  0  0  0  0  0  0  0  0 31  0  0
    7.6360    9.5310   19.7810 C   0  0  0  0  0  0  0  0  0 32  0  0
    6.8830    8.6510   19.1400 N   0  0  0  0  0  0  0  0  0 33  0  0
    5.9980    9.3200   18.3120 C   0  0  0  0  0  0  0  0  0 34  0  0
    6.0900   10.6950   18.3270 C   0  0  0  0  0  0  0  0  0 35  0  0
    7.3250   11.1790   19.4100 S   0  0  0  0  0  0  0  0  0 36  0  0
   11.9320    7.7220   27.1250 H   0  0  0  0  0  0  0  0  0  0  0  0
   11.4180    6.4620   28.1890 H   0  0  0  0  0  0  0  0  0  0  0  0
    9.2690    5.5520   28.0050 H   0  0  0  0  0  0  0  0  0  0  0  0
    8.2060    6.0740   26.7530 H   0  0  0  0  0  0  0  0  0  0  0  0
    8.7630    7.8150   25.4550 H   0  0  0  0  0  0  0  0  0  0  0  0
   10.3606    9.8615   25.5713 H   0  0  0  0  0  0  0  0  0  0  0  0
   11.6243    8.5819   25.3098 H   0  0  0  0  0  0  0  0  0  0  0  0
   11.0873    9.5949   23.1895 H   0  0  0  0  0  0  0  0  0  0  0  0
   10.4202    7.8923   23.2623 H   0  0  0  0  0  0  0  0  0  0  0  0
    8.2907    9.4008   24.1313 H   0  0  0  0  0  0  0  0  0  0  0  0
    9.0578   10.4537   22.8520 H   0  0  0  0  0  0  0  0  0  0  0  0
    8.6465    7.5591   22.1246 H   0  0  0  0  0  0  0  0  0  0  0  0
    6.2070    8.7170   21.6280 H   0  0  0  0  0  0  0  0  0  0  0  0
    4.4448    6.7730   23.9630 H   0  0  0  0  0  0  0  0  0  0  0  0
    4.3929    7.8893   22.5274 H   0  0  0  0  0  0  0  0  0  0  0  0
    6.1708    6.6494   20.7350 H   0  0  0  0  0  0  0  0  0  0  0  0
    6.6286    5.1065   21.5532 H   0  0  0  0  0  0  0  0  0  0  0  0
    4.4704    5.4660   19.4184 H   0  0  0  0  0  0  0  0  0  0  0  0
    6.0951    4.6778   19.2203 H   0  0  0  0  0  0  0  0  0  0  0  0
    5.8099    2.9115   17.5167 H   0  0  0  0  0  0  0  0  0  0  0  0
    7.0144    3.6291   18.6837 H   0  0  0  0  0  0  0  0  0  0  0  0
    6.2542    0.8153   16.4255 H   0  0  0  0  0  0  0  0  0  0  0  0
    7.9574   -0.8627   15.7338 H   0  0  0  0  0  0  0  0  0  0  0  0
   10.1782   -0.9292   16.8641 H   0  0  0  0  0  0  0  0  0  0  0  0
   10.6914    0.6804   18.6976 H   0  0  0  0  0  0  0  0  0  0  0  0
    8.9916    2.3573   19.4018 H   0  0  0  0  0  0  0  0  0  0  0  0
    3.4057    2.8626   21.8366 H   0  0  0  0  0  0  0  0  0  0  0  0
    5.2072    3.0641   22.2625 H   0  0  0  0  0  0  0  0  0  0  0  0
    5.2687    8.7886   17.6829 H   0  0  0  0  0  0  0  0  0  0  0  0
    5.4648   11.3781   17.7332 H   0  0  0  0  0  0  0  0  0  0  0  0
  1  2  2  0
  2  3  1  0
  2  4  1  0
  4  5  1  0
  5  6  1  0
  6  7  1  0
  7  8  1  0
  8  9  1  0
  9 10  1  0
 10 11  2  0
 10 12  1  0
 12 13  1  0
 13 14  1  0
 14 15  1  0
 15 16  1  0
 16 17  1  0
 17 18  2  0
 17 19  2  0
 17 20  1  6
 20 21  1  0
 21 22  2  0
 22 23  1  0
 23 24  2  0
 24 25  1  0
 25 26  2  0
 16 27  1  0
 27 28  1  0
 28 29  2  0
  8 30  1  0
 30 31  2  0
 30 32  1  0
 32 33  2  0
 33 34  1  0
 34 35  2  0
 35 36  1  0
 28 13  1  0
 36 32  1  0
 26 21  1  0
  1 37  1  0
  1 38  1  0
  3 39  1  0
  3 40  1  0
  4 41  1  0
  5 42  1  0
  5 43  1  0
  6 44  1  0
  6 45  1  0
  7 46  1  0
  7 47  1  0
  8 48  1  6
  9 49  1  0
 12 50  1  0
 12 51  1  0
 14 52  1  0
 14 53  1  0
 15 54  1  0
 15 55  1  0
 20 56  1  0
 20 57  1  0
 22 58  1  0
 23 59  1  0
 24 60  1  0
 25 61  1  0
 26 62  1  0
 27 63  1  0
 27 64  1  0
 34 65  1  0
 35 66  1  0
M  CHG  1   1   1
M  END
>  <meeko>  (1) 
{"is_sidechain": [false], "free_energy": -8.936, "intermolecular_energy": -15.204, "internal_energy": -1.437}

$$$$
